opendss_networks/LV22_80bus/lines.dss
new line.L_41 lineCode=ughv_400al_triplex_ug_4w_bundled bus1=B557 bus2=B722 length=0.000244629175463 units=km phases=4
new line.L_259 lineCode=ughv_400al_triplex_ug_4w_bundled bus1=B2714 bus2=B343 length=0.000303450514480 units=km phases=4
new line.L_271 lineCode=uglv_240al_xlpe/nyl/pvc_ug_4w_bundled bus1=B2991 bus2=B195 length=0.0796803660120 units=km phases=4
new line.L_336 lineCode=uglv_240al_xlpe/nyl/pvc_ug_4w_bundled bus1=B60 bus2=B2306 length=0.0444248197578 units=km phases=4
new line.L_451 lineCode=ughv_400al_triplex_ug_4w_bundled bus1=B1014 bus2=B459 length=0.000303450514480 units=km phases=4
new line.L_460 lineCode=uglv_240al_xlpe/nyl/pvc_ug_4w_bundled bus1=B3213 bus2=B2991 length=0.00399137658119 units=km phases=4
new line.L_472 lineCode=ugsc_16cu_xlpe/nyl/pvc_ug_4w_bundled bus1=B1704 bus2=B974 length=0.0141768455627 units=km phases=4
new line.L_492 lineCode=uglv_240al_xlpe/nyl/pvc_ug_4w_bundled bus1=B2434 bus2=B2490 length=0.0645193330385 units=km phases=4
new line.L_525 lineCode=ughv_400al_triplex_ug_4w_bundled bus1=B1997 bus2=B1992 length=7.47735679484e-05 units=km phases=4
new line.L_544 lineCode=uglv_240al_xlpe/nyl/pvc_ug_4w_bundled bus1=B195 bus2=B2066 length=0.0601955616262 units=km phases=4
new line.L_651 lineCode=moon_lv_oh_4wire bus1=B3050 bus2=B1220 length=0.0329843419773 units=km phases=4
new line.L_810 lineCode=uglv_240al_xlpe/nyl/pvc_ug_4w_bundled bus1=B1966 bus2=B343 length=0.0219814075697 units=km phases=4
new line.L_817 lineCode=ugsc_16cu_xlpe/nyl/pvc_ug_4w_bundled bus1=B1060 bus2=B2306 length=0.00687476115502 units=km phases=4
new line.L_943 lineCode=ughv_400al_triplex_ug_4w_bundled bus1=B3061 bus2=B3314 length=0.000294724860084 units=km phases=4
new line.L_1006 lineCode=moon_lv_oh_4wire bus1=B1879 bus2=B3050 length=0.0493895315355 units=km phases=4
new line.L_1042 lineCode=ughv_400al_triplex_ug_4w_bundled bus1=B2923 bus2=B307 length=7.47735679484e-05 units=km phases=4
new line.L_1118 lineCode=uglv_240al_xlpe/nyl/pvc_ug_4w_bundled bus1=B1061 bus2=B3299 length=0.00360499380760 units=km phases=4
new line.L_1155 lineCode=ugsc_16cu_xlpe/nyl/pvc_ug_4w_bundled bus1=B2546 bus2=B2490 length=0.00725350761007 units=km phases=4
new line.L_1256 lineCode=ugsc_16cu_xlpe/nyl/pvc_ug_4w_bundled bus1=B3018 bus2=B2066 length=0.0154537794673 units=km phases=4
new line.L_1285 lineCode=ughv_400al_triplex_ug_4w_bundled bus1=B2115 bus2=B2660 length=0.000354706400983 units=km phases=4
new line.L_1316 lineCode=ughv_400al_triplex_ug_4w_bundled bus1=B3117 bus2=B3314 length=0.000200000000000 units=km phases=4
new line.L_1317 lineCode=ugsc_16cu_xlpe/nyl/pvc_ug_4w_bundled bus1=B2603 bus2=B195 length=0.0606232478651 units=km phases=4
new line.L_1481 lineCode=ugsc_16cu_xlpe/nyl/pvc_ug_4w_bundled bus1=B341 bus2=B1229 length=0.0170679958286 units=km phases=4
new line.L_1716 lineCode=abc4x16_lv_oh_4w_bundled bus1=B947 bus2=B2714 length=0.0375657612065 units=km phases=4
new line.L_1817 lineCode=ugsc_16cu_xlpe/nyl/pvc_ug_4w_bundled bus1=B27 bus2=B1422 length=0.00634056702735 units=km phases=4
new line.L_1956 lineCode=uglv_185cu_xlpe/nyl/pvc_ug_4w_bundled bus1=B2617 bus2=B60 length=0.00129169756504 units=km phases=4
new line.L_2154 lineCode=moon_lv_oh_4wire bus1=B1220 bus2=B459 length=0.0822601505955 units=km phases=4
new line.L_2241 lineCode=uglv_240al_xlpe/nyl/pvc_ug_4w_bundled bus1=B2991 bus2=B2608 length=0.0838218267221 units=km phases=4
new line.L_2290 lineCode=ugsc_16cu_xlpe/nyl/pvc_ug_4w_bundled bus1=B3149 bus2=B1800 length=0.00767283171999 units=km phases=4
new line.L_2336 lineCode=abc4x16_lv_oh_4w_bundled bus1=B3263 bus2=B1014 length=0.0376280004122 units=km phases=4
new line.L_2538 lineCode=uglv_240al_xlpe/nyl/pvc_ug_4w_bundled bus1=B3149 bus2=B1966 length=0.0663972294925 units=km phases=4
new line.L_2635 lineCode=abc4x16_lv_oh_4w_bundled bus1=B1710 bus2=B3061 length=0.0428803833816 units=km phases=4
new line.L_2681 lineCode=ughv_400al_triplex_ug_4w_bundled bus1=B3383 bus2=B2146 length=7.47735679484e-05 units=km phases=4
new line.L_2742 lineCode=ugsc_16cu_xlpe/nyl/pvc_ug_4w_bundled bus1=B1101 bus2=B2434 length=0.0164792066197 units=km phases=4
new line.L_2793 lineCode=ughv_400al_triplex_ug_4w_bundled bus1=B2115 bus2=B3253 length=0.000320888958205 units=km phases=4
new line.L_2844 lineCode=ugsc_16cu_xlpe/nyl/pvc_ug_4w_bundled bus1=B922 bus2=B1966 length=0.0410182609611 units=km phases=4
new line.L_2872 lineCode=uglv_240al_xlpe/nyl/pvc_ug_4w_bundled bus1=B3351 bus2=B3213 length=0.0687358226800 units=km phases=4
new line.L_2938 lineCode=uglv_185cu_xlpe/nyl/pvc_ug_4w_bundled bus1=B2617 bus2=B1626 length=0.00141436608907 units=km phases=4
new line.L_2946 lineCode=uglv_240al_xlpe/nyl/pvc_ug_4w_bundled bus1=B1422 bus2=B1229 length=0.0192303558187 units=km phases=4
new line.L_3004 lineCode=ugsc_16cu_xlpe/nyl/pvc_ug_4w_bundled bus1=B1062 bus2=B195 length=0.0155362301510 units=km phases=4
new line.L_3091 lineCode=ugsc_16cu_xlpe/nyl/pvc_ug_4w_bundled bus1=B45 bus2=B2490 length=0.00339595490019 units=km phases=4
new line.L_3121 lineCode=ugsc_16cu_xlpe/nyl/pvc_ug_4w_bundled bus1=B793 bus2=B2434 length=0.0375174999505 units=km phases=4
new line.L_3173 lineCode=uglv_240al_xlpe/nyl/pvc_ug_4w_bundled bus1=B1966 bus2=B3314 length=0.0632224043135 units=km phases=4
new line.L_3407 lineCode=ugsc_16cu_xlpe/nyl/pvc_ug_4w_bundled bus1=B3142 bus2=B974 length=0.00622833366120 units=km phases=4
new line.L_3428 lineCode=ugsc_16cu_xlpe/nyl/pvc_ug_4w_bundled bus1=B2128 bus2=B2991 length=0.0130697915667 units=km phases=4
new line.L_3481 lineCode=ugsc_16cu_xlpe/nyl/pvc_ug_4w_bundled bus1=B3334 bus2=B2434 length=0.00701841233351 units=km phases=4
new line.L_3644 lineCode=ughv_400al_triplex_ug_4w_bundled bus1=B2115 bus2=B1915 length=0.000206301915236 units=km phases=4
new line.L_3751 lineCode=ugsc_16cu_xlpe/nyl/pvc_ug_4w_bundled bus1=B3157 bus2=B2991 length=0.0394434784097 units=km phases=4
new line.L_3832 lineCode=ughv_400al_triplex_ug_4w_bundled bus1=B365 bus2=B741 length=0.000800000000000 units=km phases=4
new line.L_3951 lineCode=ugsc_16cu_xlpe/nyl/pvc_ug_4w_bundled bus1=B2306 bus2=B199 length=0.00651514722715 units=km phases=4
new line.L_3993 lineCode=uglv_240al_xlpe/nyl/pvc_ug_4w_bundled bus1=B2441 bus2=B3149 length=0.00319716250802 units=km phases=4
new line.L_4043 lineCode=ughv_400al_triplex_ug_4w_bundled bus1=B2115 bus2=B429 length=0.000542180395898 units=km phases=4
new line.L_4073 lineCode=uglv_240al_xlpe/nyl/pvc_ug_4w_bundled bus1=B1626 bus2=B974 length=0.0674344655506 units=km phases=4
new line.L_4112 lineCode=uglv_240al_xlpe/nyl/pvc_ug_4w_bundled bus1=B2306 bus2=B1894 length=0.0352320018326 units=km phases=4
new line.L_4118 lineCode=uglv_240al_xlpe/nyl/pvc_ug_4w_bundled bus1=B2490 bus2=B1422 length=0.0607669384098 units=km phases=4
new line.L_4148 lineCode=ugsc_16cu_xlpe/nyl/pvc_ug_4w_bundled bus1=B1894 bus2=B1346 length=0.0298016441469 units=km phases=4
new line.L_4149 lineCode=ugsc_16cu_xlpe/nyl/pvc_ug_4w_bundled bus1=B2643 bus2=B1422 length=0.0212704807238 units=km phases=4
new line.L_4160 lineCode=uglv_240al_xlpe/nyl/pvc_ug_4w_bundled bus1=B3149 bus2=B741 length=0.0253988403983 units=km phases=4
new line.L_4211 lineCode=uglv_240al_xlpe/nyl/pvc_ug_4w_bundled bus1=B3299 bus2=B2434 length=0.0606073678906 units=km phases=4
new line.L_4215 lineCode=ugsc_16cu_xlpe/nyl/pvc_ug_4w_bundled bus1=B671 bus2=B974 length=0.0141779035865 units=km phases=4
new line.L_4265 lineCode=uglv_240al_xlpe/nyl/pvc_ug_4w_bundled bus1=B3149 bus2=B2617 length=0.194707906364 units=km phases=4
new line.L_4286 lineCode=ughv_400al_triplex_ug_4w_bundled bus1=B118 bus2=B2115 length=0.000255748683198 units=km phases=4
new line.L_4312 lineCode=ugsc_16cu_xlpe/nyl/pvc_ug_4w_bundled bus1=B2210 bus2=B3213 length=0.0201842974855 units=km phases=4
new line.L_4324 lineCode=ugsc_16cu_xlpe/nyl/pvc_ug_4w_bundled bus1=B950 bus2=B3299 length=0.0243284555437 units=km phases=4
new line.L_4333 lineCode=ugsc_16cu_xlpe/nyl/pvc_ug_4w_bundled bus1=B829 bus2=B1626 length=0.00217956873690 units=km phases=4
new line.L_4385 lineCode=ugsc_16cu_xlpe/nyl/pvc_ug_4w_bundled bus1=B385 bus2=B1894 length=0.0163563347941 units=km phases=4
new line.L_4399 lineCode=ughv_400al_triplex_ug_4w_bundled bus1=B459 bus2=B180 length=0.000200000000000 units=km phases=4
new line.L_4461 lineCode=ugsc_16cu_xlpe/nyl/pvc_ug_4w_bundled bus1=B2563 bus2=B1966 length=0.0202999264699 units=km phases=4
new line.L_4512 lineCode=ugsc_16cu_xlpe/nyl/pvc_ug_4w_bundled bus1=B1434 bus2=B2991 length=0.0128406473157 units=km phases=4
new line.L_4580 lineCode=ugsc_16cu_xlpe/nyl/pvc_ug_4w_bundled bus1=B1331 bus2=B2306 length=0.0163866103079 units=km phases=4
new line.L_4673 lineCode=ughv_400al_triplex_ug_4w_bundled bus1=B180 bus2=B343 length=0.000200000000000 units=km phases=4
